Version 4.1
SHEET 1 880 680
WIRE 352 -64 128 -64
WIRE 464 -64 432 -64
WIRE 512 16 400 16
WIRE 464 48 464 -64
WIRE 400 64 400 16
WIRE 432 64 400 64
WIRE 512 80 512 16
WIRE 512 80 496 80
WIRE 272 96 96 96
WIRE 432 96 352 96
WIRE 512 96 512 80
WIRE 608 96 512 96
WIRE 672 112 672 96
WIRE 352 128 352 96
WIRE 464 128 464 112
WIRE 16 224 16 96
WIRE 128 224 128 -64
WIRE 128 224 16 224
WIRE 352 224 352 192
WIRE 352 224 128 224
WIRE 672 224 672 192
WIRE 672 224 352 224
FLAG 16 224 0
FLAG 464 128 0
SYMBOL Misc\\signal 112 96 R90
WINDOW 0 -32 56 VBottom 2
WINDOW 3 88 56 VTop 2
WINDOW 123 60 56 VTop 2
WINDOW 39 0 0 Left 0
SYMATTR InstName V1
SYMATTR Value ""
SYMATTR Value2 AC 1
SYMBOL res 368 80 R90
WINDOW 0 0 56 VBottom 2
WINDOW 3 32 56 VTop 2
SYMATTR InstName R1
SYMATTR Value 4300
SYMBOL cap 336 128 R0
SYMATTR InstName C1
SYMATTR Value 4.7n
SYMBOL polcap 608 112 R270
WINDOW 0 32 32 VTop 2
WINDOW 3 0 32 VBottom 2
SYMATTR InstName C2
SYMATTR Value 220µ
SYMBOL res 656 96 R0
SYMATTR InstName R2
SYMATTR Value 36
SYMBOL voltage 448 -64 R90
WINDOW 0 -32 56 VBottom 2
WINDOW 3 32 56 VTop 2
SYMATTR InstName V2
SYMATTR Value 5
SYMBOL OpAmps\\opamp2 464 16 R0
SYMATTR InstName U1
SYMATTR Value lmv358a
SYMATTR SpiceModel lmv358a
TEXT -184 248 Left 2 ;.tran 0 0.1 0 1u
TEXT -184 280 Left 2 !.ac dec 10 1 10000
TEXT -152 32 Left 2 !.lib lmv358a.lib
